Version 4
SHEET 1 880 680
WIRE 352 224 288 224
WIRE 352 288 288 288
WIRE 352 352 288 352
WIRE 512 352 448 352
WIRE 352 416 288 416
WIRE 512 416 448 416
SYMBOL Misc/DIP8 400 320 R0
SYMATTR InstName IL300
SYMBOL diode 368 288 R180
WINDOW 0 24 64 Left 2
WINDOW 3 24 0 Left 2
SYMATTR InstName D1
SYMBOL diode 368 416 R180
WINDOW 0 24 64 Left 2
WINDOW 3 24 0 Left 2
SYMATTR InstName D2
SYMBOL diode 464 416 R180
WINDOW 0 24 64 Left 2
WINDOW 3 24 0 Left 2
SYMATTR InstName D3
