Version 4
SHEET 1 880 680
SYMBOL res 48 224 R0
SYMATTR InstName R1
SYMBOL njf -112 352 R0
SYMATTR InstName J1
